REMARK VINA RESULT:   -11.427      0.000      0.000
REMARK INTER + INTRA:         -16.325
REMARK INTER:                 -15.376
REMARK INTRA:                  -0.949
REMARK UNBOUND:                -0.222
REMARK Flexibility Score: inf
REMARK Active torsions [ 7 ] -> [ 7 ]
ROOT
ATOM      1  C1  LIG L   1      16.855  48.706  17.637  1.00  0.00     0.038 A 
ATOM      2  C2  LIG L   1      15.533  48.420  18.207  1.00  0.00    -0.029 A 
ATOM      3  C3  LIG L   1      14.468  49.346  17.948  1.00  0.00     0.007 A 
ATOM      4  C4  LIG L   1      14.696  50.523  17.146  1.00  0.00     0.024 A 
ATOM      5  C5  LIG L   1      15.977  50.801  16.587  1.00  0.00     0.035 A 
ATOM      6  C6  LIG L   1      17.061  49.867  16.849  1.00  0.00     0.047 A 
ATOM      7  C7  LIG L   1      15.230  47.172  19.069  1.00  0.00     0.045 C 
ENDROOT
BRANCH    1    8
ATOM      8  N1  LIG L   1      17.931  47.843  17.856  1.00  0.00    -0.283 N 
ATOM      9  H1  LIG L   1      17.988  46.998  17.353  1.00  0.00     0.155 HD
BRANCH    8   10
ATOM     10  C8  LIG L   1      18.920  48.163  18.773  1.00  0.00     0.220 A 
ATOM     11  C9  LIG L   1      20.912  49.386  19.234  1.00  0.00     0.077 A 
ATOM     12 C10  LIG L   1      20.964  48.846  20.563  1.00  0.00     0.048 A 
ATOM     13  N2  LIG L   1      19.887  49.023  18.390  1.00  0.00    -0.214 NA
ATOM     14 C11  LIG L   1      19.939  47.950  20.940  1.00  0.00     0.116 A 
ATOM     15  N3  LIG L   1      18.942  47.624  20.046  1.00  0.00    -0.223 NA
BRANCH   11   16
ATOM     16 C12  LIG L   1      21.925  50.343  18.687  1.00  0.00     0.019 A 
ATOM     17 C13  LIG L   1      24.178  50.887  17.691  1.00  0.00     0.020 A 
ATOM     18 C14  LIG L   1      23.237  49.922  18.211  1.00  0.00     0.013 A 
ATOM     19 C15  LIG L   1      23.788  52.272  17.659  1.00  0.00     0.111 A 
ATOM     20  N4  LIG L   1      22.522  52.665  18.119  1.00  0.00    -0.263 NA
ATOM     21 C16  LIG L   1      21.595  51.759  18.623  1.00  0.00     0.120 A 
ENDBRANCH   11   16
ENDBRANCH    8   10
ENDBRANCH    1    8
BRANCH    5   22
ATOM     22  N5  LIG L   1      16.125  51.993  15.789  1.00  0.00    -0.281 N 
ATOM     23 C17  LIG L   1      15.642  52.227  14.512  1.00  0.00     0.248 C 
ATOM     24  H2  LIG L   1      16.631  52.729  16.202  1.00  0.00     0.155 HD
ATOM     25  O1  LIG L   1      15.190  51.364  13.775  1.00  0.00    -0.270 OA
BRANCH   23   26
ATOM     26 C18  LIG L   1      15.681  53.619  13.969  1.00  0.00     0.037 A 
ATOM     27 C19  LIG L   1      16.949  54.331  13.794  1.00  0.00     0.013 A 
ATOM     28 C20  LIG L   1      14.436  54.272  13.624  1.00  0.00     0.013 A 
ATOM     29 C21  LIG L   1      16.957  55.680  13.285  1.00  0.00     0.002 A 
ATOM     30 C22  LIG L   1      14.448  55.593  13.125  1.00  0.00     0.002 A 
ATOM     31 C23  LIG L   1      15.691  56.325  12.946  1.00  0.00    -0.064 A 
BRANCH   31   32
ATOM     32 C24  LIG L   1      15.603  57.768  12.416  1.00  0.00    -0.043 C 
BRANCH   32   33
ATOM     33  N6  LIG L   1      14.331  58.511  12.663  1.00  0.00     0.380 N 
ATOM     34 C25  LIG L   1      14.618  59.899  13.179  1.00  0.00    -0.097 C 
ATOM     35 C26  LIG L   1      13.457  58.586  11.407  1.00  0.00    -0.097 C 
ATOM     36  H3  LIG L   1      13.812  57.991  13.370  1.00  0.00    -0.082 HD
ATOM     37 C27  LIG L   1      13.305  60.682  13.461  1.00  0.00    -0.098 C 
ATOM     38 C28  LIG L   1      12.120  59.346  11.689  1.00  0.00    -0.098 C 
ATOM     39  N7  LIG L   1      12.435  60.748  12.214  1.00  0.00     0.375 N 
ATOM     40 C29  LIG L   1      11.181  61.486  12.425  1.00  0.00    -0.096 C 
ATOM     41  H4  LIG L   1      12.980  61.261  11.521  1.00  0.00    -0.082 HD
ENDBRANCH   32   33
ENDBRANCH   31   32
ENDBRANCH   23   26
ENDBRANCH    5   22
TORSDOF 7
