REMARK VINA RESULT:    -9.099      3.852      6.692
REMARK INTER + INTRA:         -13.044
REMARK INTER:                 -12.109
REMARK INTRA:                  -0.934
REMARK UNBOUND:                -0.222
REMARK Flexibility Score: inf
REMARK Active torsions [ 7 ] -> [ 7 ]
ROOT
ATOM      1  C1  LIG L   1      19.807  46.225  22.516  1.00  0.00     0.038 A 
ATOM      2  C2  LIG L   1      19.380  44.843  22.763  1.00  0.00    -0.029 A 
ATOM      3  C3  LIG L   1      18.315  44.308  21.963  1.00  0.00     0.007 A 
ATOM      4  C4  LIG L   1      17.687  45.112  20.944  1.00  0.00     0.024 A 
ATOM      5  C5  LIG L   1      18.101  46.453  20.699  1.00  0.00     0.035 A 
ATOM      6  C6  LIG L   1      19.178  47.001  21.508  1.00  0.00     0.047 A 
ATOM      7  C7  LIG L   1      20.022  43.934  23.837  1.00  0.00     0.045 C 
ENDROOT
BRANCH    1    8
ATOM      8  N1  LIG L   1      20.836  46.802  23.263  1.00  0.00    -0.283 N 
ATOM      9  H1  LIG L   1      21.114  46.384  24.111  1.00  0.00     0.155 HD
BRANCH    8   10
ATOM     10  C8  LIG L   1      21.470  47.954  22.826  1.00  0.00     0.220 A 
ATOM     11  C9  LIG L   1      21.921  50.263  23.199  1.00  0.00     0.077 A 
ATOM     12 C10  LIG L   1      22.705  50.329  21.999  1.00  0.00     0.048 A 
ATOM     13  N2  LIG L   1      21.334  49.073  23.567  1.00  0.00    -0.214 NA
ATOM     14 C11  LIG L   1      22.832  49.143  21.242  1.00  0.00     0.116 A 
ATOM     15  N3  LIG L   1      22.217  47.984  21.663  1.00  0.00    -0.223 NA
BRANCH   11   16
ATOM     16 C12  LIG L   1      21.690  51.433  24.104  1.00  0.00     0.019 A 
ATOM     17 C13  LIG L   1      21.178  52.453  26.354  1.00  0.00     0.020 A 
ATOM     18 C14  LIG L   1      21.392  51.290  25.524  1.00  0.00     0.013 A 
ATOM     19 C15  LIG L   1      21.264  53.753  25.743  1.00  0.00     0.111 A 
ATOM     20  N4  LIG L   1      21.553  53.879  24.376  1.00  0.00    -0.263 NA
ATOM     21 C16  LIG L   1      21.765  52.778  23.552  1.00  0.00     0.120 A 
ENDBRANCH   11   16
ENDBRANCH    8   10
ENDBRANCH    1    8
BRANCH    5   22
ATOM     22  N5  LIG L   1      17.431  47.191  19.657  1.00  0.00    -0.281 N 
ATOM     23 C17  LIG L   1      16.486  48.194  19.796  1.00  0.00     0.248 C 
ATOM     24  H2  LIG L   1      17.674  46.951  18.733  1.00  0.00     0.155 HD
ATOM     25  O1  LIG L   1      15.914  48.465  20.841  1.00  0.00    -0.270 OA
BRANCH   23   26
ATOM     26 C18  LIG L   1      16.113  49.006  18.598  1.00  0.00     0.037 A 
ATOM     27 C19  LIG L   1      14.717  49.356  18.322  1.00  0.00     0.013 A 
ATOM     28 C20  LIG L   1      17.156  49.440  17.692  1.00  0.00     0.013 A 
ATOM     29 C21  LIG L   1      14.383  50.126  17.150  1.00  0.00     0.002 A 
ATOM     30 C22  LIG L   1      16.824  50.195  16.545  1.00  0.00     0.002 A 
ATOM     31 C23  LIG L   1      15.448  50.551  16.245  1.00  0.00    -0.064 A 
BRANCH   31   32
ATOM     32 C24  LIG L   1      15.181  51.357  14.959  1.00  0.00    -0.043 C 
BRANCH   32   33
ATOM     33  N6  LIG L   1      16.176  52.408  14.592  1.00  0.00     0.380 N 
ATOM     34 C25  LIG L   1      16.421  52.409  13.103  1.00  0.00    -0.097 C 
ATOM     35 C26  LIG L   1      15.738  53.801  15.054  1.00  0.00    -0.097 C 
ATOM     36  H3  LIG L   1      17.045  52.180  15.075  1.00  0.00    -0.082 HD
ATOM     37 C27  LIG L   1      17.471  53.483  12.702  1.00  0.00    -0.098 C 
ATOM     38 C28  LIG L   1      16.801  54.885  14.682  1.00  0.00    -0.098 C 
ATOM     39  N7  LIG L   1      17.038  54.865  13.171  1.00  0.00     0.375 N 
ATOM     40 C29  LIG L   1      17.994  55.922  12.810  1.00  0.00    -0.096 C 
ATOM     41  H4  LIG L   1      16.163  55.063  12.683  1.00  0.00    -0.082 HD
ENDBRANCH   32   33
ENDBRANCH   31   32
ENDBRANCH   23   26
ENDBRANCH    5   22
TORSDOF 7
