REMARK VINA RESULT:   -10.434      1.439      2.159
REMARK INTER + INTRA:         -14.926
REMARK INTER:                 -14.441
REMARK INTRA:                  -0.485
REMARK UNBOUND:                -0.222
REMARK Flexibility Score: inf
REMARK Active torsions [ 7 ] -> [ 7 ]
ROOT
ATOM      1  C1  LIG L   1      18.517  48.675  18.982  1.00  0.00     0.038 A 
ATOM      2  C2  LIG L   1      17.485  47.634  19.070  1.00  0.00    -0.029 A 
ATOM      3  C3  LIG L   1      16.345  47.735  18.205  1.00  0.00     0.007 A 
ATOM      4  C4  LIG L   1      16.222  48.830  17.275  1.00  0.00     0.024 A 
ATOM      5  C5  LIG L   1      17.224  49.840  17.185  1.00  0.00     0.035 A 
ATOM      6  C6  LIG L   1      18.381  49.744  18.061  1.00  0.00     0.047 A 
ATOM      7  C7  LIG L   1      17.567  46.435  20.043  1.00  0.00     0.045 C 
ENDROOT
BRANCH    1    8
ATOM      8  N1  LIG L   1      19.648  48.632  19.800  1.00  0.00    -0.283 N 
ATOM      9  H1  LIG L   1      19.555  48.781  20.769  1.00  0.00     0.155 HD
BRANCH    8   10
ATOM     10  C8  LIG L   1      20.902  48.382  19.263  1.00  0.00     0.220 A 
ATOM     11  C9  LIG L   1      22.937  49.280  18.411  1.00  0.00     0.077 A 
ATOM     12 C10  LIG L   1      23.441  47.961  18.157  1.00  0.00     0.048 A 
ATOM     13  N2  LIG L   1      21.683  49.439  18.958  1.00  0.00    -0.214 NA
ATOM     14 C11  LIG L   1      22.603  46.872  18.487  1.00  0.00     0.116 A 
ATOM     15  N3  LIG L   1      21.356  47.097  19.029  1.00  0.00    -0.223 NA
BRANCH   11   16
ATOM     16 C12  LIG L   1      23.703  50.532  18.114  1.00  0.00     0.019 A 
ATOM     17 C13  LIG L   1      25.187  51.950  16.648  1.00  0.00     0.020 A 
ATOM     18 C14  LIG L   1      24.466  50.721  16.887  1.00  0.00     0.013 A 
ATOM     19 C15  LIG L   1      25.134  52.978  17.654  1.00  0.00     0.111 A 
ATOM     20  N4  LIG L   1      24.395  52.785  18.831  1.00  0.00    -0.263 NA
ATOM     21 C16  LIG L   1      23.690  51.614  19.087  1.00  0.00     0.120 A 
ENDBRANCH   11   16
ENDBRANCH    8   10
ENDBRANCH    1    8
BRANCH    5   22
ATOM     22  N5  LIG L   1      17.036  50.899  16.224  1.00  0.00    -0.281 N 
ATOM     23 C17  LIG L   1      15.857  51.294  15.612  1.00  0.00     0.248 C 
ATOM     24  H2  LIG L   1      17.843  51.403  15.972  1.00  0.00     0.155 HD
ATOM     25  O1  LIG L   1      14.817  50.654  15.638  1.00  0.00    -0.270 OA
BRANCH   23   26
ATOM     26 C18  LIG L   1      15.835  52.579  14.849  1.00  0.00     0.037 A 
ATOM     27 C19  LIG L   1      14.577  53.275  14.569  1.00  0.00     0.013 A 
ATOM     28 C20  LIG L   1      17.085  53.132  14.372  1.00  0.00     0.013 A 
ATOM     29 C21  LIG L   1      14.582  54.505  13.816  1.00  0.00     0.002 A 
ATOM     30 C22  LIG L   1      17.086  54.338  13.635  1.00  0.00     0.002 A 
ATOM     31 C23  LIG L   1      15.852  55.046  13.339  1.00  0.00    -0.064 A 
BRANCH   31   32
ATOM     32 C24  LIG L   1      15.951  56.341  12.510  1.00  0.00    -0.043 C 
BRANCH   32   33
ATOM     33  N6  LIG L   1      15.062  57.474  12.904  1.00  0.00     0.380 N 
ATOM     34 C25  LIG L   1      15.843  58.764  12.968  1.00  0.00    -0.097 C 
ATOM     35 C26  LIG L   1      13.870  57.627  11.955  1.00  0.00    -0.097 C 
ATOM     36  H3  LIG L   1      14.694  57.259  13.831  1.00  0.00    -0.082 HD
ATOM     37 C27  LIG L   1      14.940  59.954  13.397  1.00  0.00    -0.098 C 
ATOM     38 C28  LIG L   1      12.939  58.803  12.396  1.00  0.00    -0.098 C 
ATOM     39  N7  LIG L   1      13.751  60.097  12.457  1.00  0.00     0.375 N 
ATOM     40 C29  LIG L   1      12.866  61.216  12.815  1.00  0.00    -0.096 C 
ATOM     41  H4  LIG L   1      14.146  60.300  11.539  1.00  0.00    -0.082 HD
ENDBRANCH   32   33
ENDBRANCH   31   32
ENDBRANCH   23   26
ENDBRANCH    5   22
TORSDOF 7
